new line.hv_f0_lv28_f0_l0 bus1=hv_f0_lv28_busbar.1.2.3.4 bus2=hv_f0_lv28_f0_n0.1.2.3.4 phases=4 length=19.92 units=m linecode=lc_247-3ph enabled=true
new line.hv_f0_lv28_f0_l0_LS bus1=hv_f0_lv28_f0_n0.1.2.3.4 bus2=hv_f0_lv28_f0_c0.1.2.3.4 phases=4 length=10 units=m linecode=lc_248-3ph enabled=true
new line.hv_f0_lv28_f0_l1 bus1=hv_f0_lv28_f0_n0.1.2.3.4 bus2=hv_f0_lv28_f0_n1.1.2.3.4 phases=4 length=19.92 units=m linecode=lc_247-3ph enabled=true
new line.hv_f0_lv28_f0_l1_LS bus1=hv_f0_lv28_f0_n1.1.2.3.4 bus2=hv_f0_lv28_f0_c1.1.2.3.4 phases=4 length=10 units=m linecode=lc_248-3ph enabled=true
new line.hv_f0_lv28_f0_l2 bus1=hv_f0_lv28_f0_n1.1.2.3.4 bus2=hv_f0_lv28_f0_n2.1.2.3.4 phases=4 length=19.92 units=m linecode=lc_247-3ph enabled=true
new line.hv_f0_lv28_f0_l2_LS bus1=hv_f0_lv28_f0_n2.1.2.3.4 bus2=hv_f0_lv28_f0_c2.1.2.3.4 phases=4 length=10 units=m linecode=lc_248-3ph enabled=true
new line.hv_f0_lv28_f0_l3 bus1=hv_f0_lv28_f0_n2.1.2.3.4 bus2=hv_f0_lv28_f0_n3.1.2.3.4 phases=4 length=19.92 units=m linecode=lc_247-3ph enabled=true
new line.hv_f0_lv28_f0_l3_LS bus1=hv_f0_lv28_f0_n3.1.2.3.4 bus2=hv_f0_lv28_f0_c3.1.2.3.4 phases=4 length=10 units=m linecode=lc_248-3ph enabled=true
new line.hv_f0_lv28_f0_l4 bus1=hv_f0_lv28_f0_n3.1.2.3.4 bus2=hv_f0_lv28_f0_n4.1.2.3.4 phases=4 length=19.92 units=m linecode=lc_247-3ph enabled=true
new line.hv_f0_lv28_f0_l4_LS bus1=hv_f0_lv28_f0_n4.1.2.3.4 bus2=hv_f0_lv28_f0_c4.1.2.3.4 phases=4 length=10 units=m linecode=lc_248-3ph enabled=true
new line.hv_f0_lv28_f0_l5 bus1=hv_f0_lv28_f0_n4.1.2.3.4 bus2=hv_f0_lv28_f0_n5.1.2.3.4 phases=4 length=19.92 units=m linecode=lc_247-3ph enabled=true
new line.hv_f0_lv28_f0_l5_LS bus1=hv_f0_lv28_f0_n5.1.2.3.4 bus2=hv_f0_lv28_f0_c5.1.2.3.4 phases=4 length=10 units=m linecode=lc_248-3ph enabled=true
new line.hv_f0_lv28_f0_l6 bus1=hv_f0_lv28_f0_n5.1.2.3.4 bus2=hv_f0_lv28_f0_n6.1.2.3.4 phases=4 length=19.92 units=m linecode=lc_247-3ph enabled=true
new line.hv_f0_lv28_f0_l6_LS bus1=hv_f0_lv28_f0_n6.1.2.3.4 bus2=hv_f0_lv28_f0_c6.1.2.3.4 phases=4 length=10 units=m linecode=lc_248-3ph enabled=true
new line.hv_f0_lv28_f0_l7 bus1=hv_f0_lv28_f0_n6.1.2.3.4 bus2=hv_f0_lv28_f0_n7.1.2.3.4 phases=4 length=19.92 units=m linecode=lc_247-3ph enabled=true
new line.hv_f0_lv28_f0_l7_LS bus1=hv_f0_lv28_f0_n7.1.2.3.4 bus2=hv_f0_lv28_f0_c7.1.2.3.4 phases=4 length=10 units=m linecode=lc_248-3ph enabled=true
new line.hv_f0_lv28_f0_l8 bus1=hv_f0_lv28_f0_n7.1.2.3.4 bus2=hv_f0_lv28_f0_n8.1.2.3.4 phases=4 length=19.92 units=m linecode=lc_247-3ph enabled=true
new line.hv_f0_lv28_f0_l8_LS bus1=hv_f0_lv28_f0_n8.1.2.3.4 bus2=hv_f0_lv28_f0_c8.1.2.3.4 phases=4 length=10 units=m linecode=lc_248-3ph enabled=true
new line.hv_f0_lv28_f0_l9 bus1=hv_f0_lv28_f0_n8.1.2.3.4 bus2=hv_f0_lv28_f0_n9.1.2.3.4 phases=4 length=19.92 units=m linecode=lc_247-3ph enabled=true
new line.hv_f0_lv28_f0_l9_LS bus1=hv_f0_lv28_f0_n9.1.2.3.4 bus2=hv_f0_lv28_f0_c9.1.2.3.4 phases=4 length=10 units=m linecode=lc_248-3ph enabled=true
new line.hv_f0_lv28_f0_l10 bus1=hv_f0_lv28_f0_n9.1.2.3.4 bus2=hv_f0_lv28_f0_n10.1.2.3.4 phases=4 length=19.92 units=m linecode=lc_247-3ph enabled=true
new line.hv_f0_lv28_f0_l10_LS bus1=hv_f0_lv28_f0_n10.1.2.3.4 bus2=hv_f0_lv28_f0_c10.1.2.3.4 phases=4 length=10 units=m linecode=lc_248-3ph enabled=true
new line.hv_f0_lv28_f0_l11 bus1=hv_f0_lv28_f0_n10.1.2.3.4 bus2=hv_f0_lv28_f0_n11.1.2.3.4 phases=4 length=19.92 units=m linecode=lc_247-3ph enabled=true
new line.hv_f0_lv28_f0_l11_LS bus1=hv_f0_lv28_f0_n11.1.2.3.4 bus2=hv_f0_lv28_f0_c11.1.2.3.4 phases=4 length=10 units=m linecode=lc_248-3ph enabled=true
new line.hv_f0_lv28_f0_l12 bus1=hv_f0_lv28_f0_n11.1.2.3.4 bus2=hv_f0_lv28_f0_n12.1.2.3.4 phases=4 length=19.92 units=m linecode=lc_247-3ph enabled=true
new line.hv_f0_lv28_f0_l12_LS bus1=hv_f0_lv28_f0_n12.1.2.3.4 bus2=hv_f0_lv28_f0_c12.1.2.3.4 phases=4 length=10 units=m linecode=lc_248-3ph enabled=true
new line.hv_f0_lv28_f0_l13 bus1=hv_f0_lv28_f0_n12.1.2.3.4 bus2=hv_f0_lv28_f0_n13.1.2.3.4 phases=4 length=19.92 units=m linecode=lc_247-3ph enabled=true
new line.hv_f0_lv28_f0_l13_LS bus1=hv_f0_lv28_f0_n13.1.2.3.4 bus2=hv_f0_lv28_f0_c13.1.2.3.4 phases=4 length=10 units=m linecode=lc_248-3ph enabled=true
new line.hv_f0_lv28_f0_l14 bus1=hv_f0_lv28_f0_n13.1.2.3.4 bus2=hv_f0_lv28_f0_n14.1.2.3.4 phases=4 length=19.92 units=m linecode=lc_247-3ph enabled=true
new line.hv_f0_lv28_f0_l14_LS bus1=hv_f0_lv28_f0_n14.1.2.3.4 bus2=hv_f0_lv28_f0_c14.1.2.3.4 phases=4 length=10 units=m linecode=lc_248-3ph enabled=true
new line.hv_f0_lv28_f0_l15 bus1=hv_f0_lv28_f0_n14.1.2.3.4 bus2=hv_f0_lv28_f0_n15.1.2.3.4 phases=4 length=19.92 units=m linecode=lc_247-3ph enabled=true
new line.hv_f0_lv28_f0_l15_LS bus1=hv_f0_lv28_f0_n15.1.2.3.4 bus2=hv_f0_lv28_f0_c15.1.2.3.4 phases=4 length=10 units=m linecode=lc_248-3ph enabled=true
new line.hv_f0_lv28_f0_l16 bus1=hv_f0_lv28_f0_n15.1.2.3.4 bus2=hv_f0_lv28_f0_n16.1.2.3.4 phases=4 length=19.92 units=m linecode=lc_247-3ph enabled=true
new line.hv_f0_lv28_f0_l16_LS bus1=hv_f0_lv28_f0_n16.1.2.3.4 bus2=hv_f0_lv28_f0_c16.1.2.3.4 phases=4 length=10 units=m linecode=lc_248-3ph enabled=true
new line.hv_f0_lv28_f0_l17 bus1=hv_f0_lv28_f0_n16.1.2.3.4 bus2=hv_f0_lv28_f0_n17.1.2.3.4 phases=4 length=19.92 units=m linecode=lc_247-3ph enabled=true
new line.hv_f0_lv28_f0_l17_LS bus1=hv_f0_lv28_f0_n17.1.2.3.4 bus2=hv_f0_lv28_f0_c17.1.2.3.4 phases=4 length=10 units=m linecode=lc_248-3ph enabled=true
new line.hv_f0_lv28_f0_l18 bus1=hv_f0_lv28_f0_n17.1.2.3.4 bus2=hv_f0_lv28_f0_n18.1.2.3.4 phases=4 length=19.92 units=m linecode=lc_247-3ph enabled=true
new line.hv_f0_lv28_f0_l18_LS bus1=hv_f0_lv28_f0_n18.1.2.3.4 bus2=hv_f0_lv28_f0_c18.1.2.3.4 phases=4 length=10 units=m linecode=lc_248-3ph enabled=true
new line.hv_f0_lv28_f0_l19 bus1=hv_f0_lv28_f0_n18.1.2.3.4 bus2=hv_f0_lv28_f0_n19.1.2.3.4 phases=4 length=19.92 units=m linecode=lc_247-3ph enabled=true
new line.hv_f0_lv28_f0_l19_LS bus1=hv_f0_lv28_f0_n19.1.2.3.4 bus2=hv_f0_lv28_f0_c19.1.2.3.4 phases=4 length=10 units=m linecode=lc_248-3ph enabled=true
new line.hv_f0_lv28_f0_l20 bus1=hv_f0_lv28_f0_n19.1.2.3.4 bus2=hv_f0_lv28_f0_n20.1.2.3.4 phases=4 length=19.92 units=m linecode=lc_247-3ph enabled=true
new line.hv_f0_lv28_f0_l20_LS bus1=hv_f0_lv28_f0_n20.1.2.3.4 bus2=hv_f0_lv28_f0_c20.1.2.3.4 phases=4 length=10 units=m linecode=lc_248-3ph enabled=true
new line.hv_f0_lv28_f0_l21 bus1=hv_f0_lv28_f0_n20.1.2.3.4 bus2=hv_f0_lv28_f0_n21.1.2.3.4 phases=4 length=19.92 units=m linecode=lc_247-3ph enabled=true
new line.hv_f0_lv28_f0_l21_LS bus1=hv_f0_lv28_f0_n21.1.2.3.4 bus2=hv_f0_lv28_f0_c21.1.2.3.4 phases=4 length=10 units=m linecode=lc_248-3ph enabled=true
new line.hv_f0_lv28_f0_l22 bus1=hv_f0_lv28_f0_n21.1.2.3.4 bus2=hv_f0_lv28_f0_n22.1.2.3.4 phases=4 length=19.92 units=m linecode=lc_247-3ph enabled=true
new line.hv_f0_lv28_f0_l22_LS bus1=hv_f0_lv28_f0_n22.1.2.3.4 bus2=hv_f0_lv28_f0_c22.1.2.3.4 phases=4 length=10 units=m linecode=lc_248-3ph enabled=true
new line.hv_f0_lv28_f0_l23 bus1=hv_f0_lv28_f0_n22.1.2.3.4 bus2=hv_f0_lv28_f0_n23.1.2.3.4 phases=4 length=19.92 units=m linecode=lc_247-3ph enabled=true
new line.hv_f0_lv28_f0_l23_LS bus1=hv_f0_lv28_f0_n23.1.2.3.4 bus2=hv_f0_lv28_f0_c23.1.2.3.4 phases=4 length=10 units=m linecode=lc_248-3ph enabled=true
new line.hv_f0_lv28_f0_l24 bus1=hv_f0_lv28_f0_n23.1.2.3.4 bus2=hv_f0_lv28_f0_n24.1.2.3.4 phases=4 length=19.92 units=m linecode=lc_247-3ph enabled=true
new line.hv_f0_lv28_f0_l24_LS bus1=hv_f0_lv28_f0_n24.1.2.3.4 bus2=hv_f0_lv28_f0_c24.1.2.3.4 phases=4 length=10 units=m linecode=lc_248-3ph enabled=true
new line.hv_f0_lv28_f0_l25 bus1=hv_f0_lv28_f0_n24.1.2.3.4 bus2=hv_f0_lv28_f0_n25.1.2.3.4 phases=4 length=19.92 units=m linecode=lc_247-3ph enabled=true
new line.hv_f0_lv28_f0_l25_LS bus1=hv_f0_lv28_f0_n25.1.2.3.4 bus2=hv_f0_lv28_f0_c25.1.2.3.4 phases=4 length=10 units=m linecode=lc_248-3ph enabled=true
new line.hv_f0_lv28_f0_l26 bus1=hv_f0_lv28_f0_n25.1.2.3.4 bus2=hv_f0_lv28_f0_n26.1.2.3.4 phases=4 length=19.92 units=m linecode=lc_247-3ph enabled=true
new line.hv_f0_lv28_f0_l26_LS bus1=hv_f0_lv28_f0_n26.1.2.3.4 bus2=hv_f0_lv28_f0_c26.1.2.3.4 phases=4 length=10 units=m linecode=lc_248-3ph enabled=true
new line.hv_f0_lv28_f0_l27 bus1=hv_f0_lv28_f0_n26.1.2.3.4 bus2=hv_f0_lv28_f0_n27.1.2.3.4 phases=4 length=19.92 units=m linecode=lc_247-3ph enabled=true
new line.hv_f0_lv28_f0_l27_LS bus1=hv_f0_lv28_f0_n27.1.2.3.4 bus2=hv_f0_lv28_f0_c27.1.2.3.4 phases=4 length=10 units=m linecode=lc_248-3ph enabled=true
new line.hv_f0_lv28_f0_l28 bus1=hv_f0_lv28_f0_n27.1.2.3.4 bus2=hv_f0_lv28_f0_n28.1.2.3.4 phases=4 length=19.92 units=m linecode=lc_247-3ph enabled=true
new line.hv_f0_lv28_f0_l28_LS bus1=hv_f0_lv28_f0_n28.1.2.3.4 bus2=hv_f0_lv28_f0_c28.1.2.3.4 phases=4 length=10 units=m linecode=lc_248-3ph enabled=true
new line.hv_f0_lv28_f0_l29 bus1=hv_f0_lv28_f0_n28.1.2.3.4 bus2=hv_f0_lv28_f0_n29.1.2.3.4 phases=4 length=19.92 units=m linecode=lc_247-3ph enabled=true
new line.hv_f0_lv28_f0_l29_LS bus1=hv_f0_lv28_f0_n29.1.2.3.4 bus2=hv_f0_lv28_f0_c29.1.2.3.4 phases=4 length=10 units=m linecode=lc_248-3ph enabled=true
new line.hv_f0_lv28_f0_l30 bus1=hv_f0_lv28_f0_n29.1.2.3.4 bus2=hv_f0_lv28_f0_n30.1.2.3.4 phases=4 length=19.92 units=m linecode=lc_247-3ph enabled=true
new line.hv_f0_lv28_f0_l30_LS bus1=hv_f0_lv28_f0_n30.1.2.3.4 bus2=hv_f0_lv28_f0_c30.1.2.3.4 phases=4 length=10 units=m linecode=lc_248-3ph enabled=true
new line.hv_f0_lv28_f0_l31 bus1=hv_f0_lv28_f0_n30.1.2.3.4 bus2=hv_f0_lv28_f0_n31.1.2.3.4 phases=4 length=19.92 units=m linecode=lc_247-3ph enabled=true
new line.hv_f0_lv28_f0_l31_LS bus1=hv_f0_lv28_f0_n31.1.2.3.4 bus2=hv_f0_lv28_f0_c31.1.2.3.4 phases=4 length=10 units=m linecode=lc_248-3ph enabled=true
new line.hv_f0_lv28_f0_l32 bus1=hv_f0_lv28_f0_n31.1.2.3.4 bus2=hv_f0_lv28_f0_n32.1.2.3.4 phases=4 length=19.92 units=m linecode=lc_247-3ph enabled=true
new line.hv_f0_lv28_f0_l32_LS bus1=hv_f0_lv28_f0_n32.1.2.3.4 bus2=hv_f0_lv28_f0_c32.1.2.3.4 phases=4 length=10 units=m linecode=lc_248-3ph enabled=true
new line.hv_f0_lv28_f0_l33 bus1=hv_f0_lv28_f0_n32.1.2.3.4 bus2=hv_f0_lv28_f0_n33.1.2.3.4 phases=4 length=19.92 units=m linecode=lc_247-3ph enabled=true
new line.hv_f0_lv28_f0_l33_LS bus1=hv_f0_lv28_f0_n33.1.2.3.4 bus2=hv_f0_lv28_f0_c33.1.2.3.4 phases=4 length=10 units=m linecode=lc_248-3ph enabled=true
new line.hv_f0_lv28_f0_l34 bus1=hv_f0_lv28_f0_n33.1.2.3.4 bus2=hv_f0_lv28_f0_n34.1.2.3.4 phases=4 length=19.92 units=m linecode=lc_247-3ph enabled=true
new line.hv_f0_lv28_f0_l34_LS bus1=hv_f0_lv28_f0_n34.1.2.3.4 bus2=hv_f0_lv28_f0_c34.1.2.3.4 phases=4 length=10 units=m linecode=lc_248-3ph enabled=true
new line.hv_f0_lv28_f0_l35 bus1=hv_f0_lv28_f0_n34.1.2.3.4 bus2=hv_f0_lv28_f0_n35.1.2.3.4 phases=4 length=19.92 units=m linecode=lc_247-3ph enabled=true
new line.hv_f0_lv28_f0_l35_LS bus1=hv_f0_lv28_f0_n35.1.2.3.4 bus2=hv_f0_lv28_f0_c35.1.2.3.4 phases=4 length=10 units=m linecode=lc_248-3ph enabled=true
new line.hv_f0_lv28_f0_l36 bus1=hv_f0_lv28_f0_n35.1.2.3.4 bus2=hv_f0_lv28_f0_n36.1.2.3.4 phases=4 length=19.92 units=m linecode=lc_247-3ph enabled=true
new line.hv_f0_lv28_f0_l36_LS bus1=hv_f0_lv28_f0_n36.1.2.3.4 bus2=hv_f0_lv28_f0_c36.1.2.3.4 phases=4 length=10 units=m linecode=lc_248-3ph enabled=true
new line.hv_f0_lv28_f0_l37 bus1=hv_f0_lv28_f0_n36.1.2.3.4 bus2=hv_f0_lv28_f0_n37.1.2.3.4 phases=4 length=19.92 units=m linecode=lc_247-3ph enabled=true
new line.hv_f0_lv28_f0_l37_LS bus1=hv_f0_lv28_f0_n37.1.2.3.4 bus2=hv_f0_lv28_f0_c37.1.2.3.4 phases=4 length=10 units=m linecode=lc_248-3ph enabled=true
new line.hv_f0_lv28_f0_l38 bus1=hv_f0_lv28_f0_n37.1.2.3.4 bus2=hv_f0_lv28_f0_n38.1.2.3.4 phases=4 length=19.92 units=m linecode=lc_247-3ph enabled=true
new line.hv_f0_lv28_f0_l38_LS bus1=hv_f0_lv28_f0_n38.1.2.3.4 bus2=hv_f0_lv28_f0_c38.1.2.3.4 phases=4 length=10 units=m linecode=lc_248-3ph enabled=true
new line.hv_f0_lv28_f0_l39 bus1=hv_f0_lv28_f0_n38.1.2.3.4 bus2=hv_f0_lv28_f0_n39.1.2.3.4 phases=4 length=19.92 units=m linecode=lc_247-3ph enabled=true
new line.hv_f0_lv28_f0_l39_LS bus1=hv_f0_lv28_f0_n39.1.2.3.4 bus2=hv_f0_lv28_f0_c39.1.2.3.4 phases=4 length=10 units=m linecode=lc_248-3ph enabled=true
new line.hv_f0_lv28_f1_l0 bus1=hv_f0_lv28_busbar.1.2.3.4 bus2=hv_f0_lv28_f1_n0.1.2.3.4 phases=4 length=19.92 units=m linecode=lc_247-3ph enabled=true
new line.hv_f0_lv28_f1_l0_LS bus1=hv_f0_lv28_f1_n0.1.2.3.4 bus2=hv_f0_lv28_f1_c0.1.2.3.4 phases=4 length=10 units=m linecode=lc_248-3ph enabled=true
new line.hv_f0_lv28_f1_l1 bus1=hv_f0_lv28_f1_n0.1.2.3.4 bus2=hv_f0_lv28_f1_n1.1.2.3.4 phases=4 length=19.92 units=m linecode=lc_247-3ph enabled=true
new line.hv_f0_lv28_f1_l1_LS bus1=hv_f0_lv28_f1_n1.1.2.3.4 bus2=hv_f0_lv28_f1_c1.1.2.3.4 phases=4 length=10 units=m linecode=lc_248-3ph enabled=true
new line.hv_f0_lv28_f1_l2 bus1=hv_f0_lv28_f1_n1.1.2.3.4 bus2=hv_f0_lv28_f1_n2.1.2.3.4 phases=4 length=19.92 units=m linecode=lc_247-3ph enabled=true
new line.hv_f0_lv28_f1_l2_LS bus1=hv_f0_lv28_f1_n2.1.2.3.4 bus2=hv_f0_lv28_f1_c2.1.2.3.4 phases=4 length=10 units=m linecode=lc_248-3ph enabled=true
new line.hv_f0_lv28_f1_l3 bus1=hv_f0_lv28_f1_n2.1.2.3.4 bus2=hv_f0_lv28_f1_n3.1.2.3.4 phases=4 length=19.92 units=m linecode=lc_247-3ph enabled=true
new line.hv_f0_lv28_f1_l3_LS bus1=hv_f0_lv28_f1_n3.1.2.3.4 bus2=hv_f0_lv28_f1_c3.1.2.3.4 phases=4 length=10 units=m linecode=lc_248-3ph enabled=true
new line.hv_f0_lv28_f1_l4 bus1=hv_f0_lv28_f1_n3.1.2.3.4 bus2=hv_f0_lv28_f1_n4.1.2.3.4 phases=4 length=19.92 units=m linecode=lc_247-3ph enabled=true
new line.hv_f0_lv28_f1_l4_LS bus1=hv_f0_lv28_f1_n4.1.2.3.4 bus2=hv_f0_lv28_f1_c4.1.2.3.4 phases=4 length=10 units=m linecode=lc_248-3ph enabled=true
new line.hv_f0_lv28_f1_l5 bus1=hv_f0_lv28_f1_n4.1.2.3.4 bus2=hv_f0_lv28_f1_n5.1.2.3.4 phases=4 length=19.92 units=m linecode=lc_247-3ph enabled=true
new line.hv_f0_lv28_f1_l5_LS bus1=hv_f0_lv28_f1_n5.1.2.3.4 bus2=hv_f0_lv28_f1_c5.1.2.3.4 phases=4 length=10 units=m linecode=lc_248-3ph enabled=true
new line.hv_f0_lv28_f1_l6 bus1=hv_f0_lv28_f1_n5.1.2.3.4 bus2=hv_f0_lv28_f1_n6.1.2.3.4 phases=4 length=19.92 units=m linecode=lc_247-3ph enabled=true
new line.hv_f0_lv28_f1_l6_LS bus1=hv_f0_lv28_f1_n6.1.2.3.4 bus2=hv_f0_lv28_f1_c6.1.2.3.4 phases=4 length=10 units=m linecode=lc_248-3ph enabled=true
new line.hv_f0_lv28_f1_l7 bus1=hv_f0_lv28_f1_n6.1.2.3.4 bus2=hv_f0_lv28_f1_n7.1.2.3.4 phases=4 length=19.92 units=m linecode=lc_247-3ph enabled=true
new line.hv_f0_lv28_f1_l7_LS bus1=hv_f0_lv28_f1_n7.1.2.3.4 bus2=hv_f0_lv28_f1_c7.1.2.3.4 phases=4 length=10 units=m linecode=lc_248-3ph enabled=true
new line.hv_f0_lv28_f1_l8 bus1=hv_f0_lv28_f1_n7.1.2.3.4 bus2=hv_f0_lv28_f1_n8.1.2.3.4 phases=4 length=19.92 units=m linecode=lc_247-3ph enabled=true
new line.hv_f0_lv28_f1_l8_LS bus1=hv_f0_lv28_f1_n8.1.2.3.4 bus2=hv_f0_lv28_f1_c8.1.2.3.4 phases=4 length=10 units=m linecode=lc_248-3ph enabled=true
new line.hv_f0_lv28_f1_l9 bus1=hv_f0_lv28_f1_n8.1.2.3.4 bus2=hv_f0_lv28_f1_n9.1.2.3.4 phases=4 length=19.92 units=m linecode=lc_247-3ph enabled=true
new line.hv_f0_lv28_f1_l9_LS bus1=hv_f0_lv28_f1_n9.1.2.3.4 bus2=hv_f0_lv28_f1_c9.1.2.3.4 phases=4 length=10 units=m linecode=lc_248-3ph enabled=true
new line.hv_f0_lv28_f1_l10 bus1=hv_f0_lv28_f1_n9.1.2.3.4 bus2=hv_f0_lv28_f1_n10.1.2.3.4 phases=4 length=19.92 units=m linecode=lc_247-3ph enabled=true
new line.hv_f0_lv28_f1_l10_LS bus1=hv_f0_lv28_f1_n10.1.2.3.4 bus2=hv_f0_lv28_f1_c10.1.2.3.4 phases=4 length=10 units=m linecode=lc_248-3ph enabled=true
new line.hv_f0_lv28_f1_l11 bus1=hv_f0_lv28_f1_n10.1.2.3.4 bus2=hv_f0_lv28_f1_n11.1.2.3.4 phases=4 length=19.92 units=m linecode=lc_247-3ph enabled=true
new line.hv_f0_lv28_f1_l11_LS bus1=hv_f0_lv28_f1_n11.1.2.3.4 bus2=hv_f0_lv28_f1_c11.1.2.3.4 phases=4 length=10 units=m linecode=lc_248-3ph enabled=true
new line.hv_f0_lv28_f1_l12 bus1=hv_f0_lv28_f1_n11.1.2.3.4 bus2=hv_f0_lv28_f1_n12.1.2.3.4 phases=4 length=19.92 units=m linecode=lc_247-3ph enabled=true
new line.hv_f0_lv28_f1_l12_LS bus1=hv_f0_lv28_f1_n12.1.2.3.4 bus2=hv_f0_lv28_f1_c12.1.2.3.4 phases=4 length=10 units=m linecode=lc_248-3ph enabled=true
new line.hv_f0_lv28_f1_l13 bus1=hv_f0_lv28_f1_n12.1.2.3.4 bus2=hv_f0_lv28_f1_n13.1.2.3.4 phases=4 length=19.92 units=m linecode=lc_247-3ph enabled=true
new line.hv_f0_lv28_f1_l13_LS bus1=hv_f0_lv28_f1_n13.1.2.3.4 bus2=hv_f0_lv28_f1_c13.1.2.3.4 phases=4 length=10 units=m linecode=lc_248-3ph enabled=true
new line.hv_f0_lv28_f1_l14 bus1=hv_f0_lv28_f1_n13.1.2.3.4 bus2=hv_f0_lv28_f1_n14.1.2.3.4 phases=4 length=19.92 units=m linecode=lc_247-3ph enabled=true
new line.hv_f0_lv28_f1_l14_LS bus1=hv_f0_lv28_f1_n14.1.2.3.4 bus2=hv_f0_lv28_f1_c14.1.2.3.4 phases=4 length=10 units=m linecode=lc_248-3ph enabled=true
new line.hv_f0_lv28_f1_l15 bus1=hv_f0_lv28_f1_n14.1.2.3.4 bus2=hv_f0_lv28_f1_n15.1.2.3.4 phases=4 length=19.92 units=m linecode=lc_247-3ph enabled=true
new line.hv_f0_lv28_f1_l15_LS bus1=hv_f0_lv28_f1_n15.1.2.3.4 bus2=hv_f0_lv28_f1_c15.1.2.3.4 phases=4 length=10 units=m linecode=lc_248-3ph enabled=true
new line.hv_f0_lv28_f1_l16 bus1=hv_f0_lv28_f1_n15.1.2.3.4 bus2=hv_f0_lv28_f1_n16.1.2.3.4 phases=4 length=19.92 units=m linecode=lc_247-3ph enabled=true
new line.hv_f0_lv28_f1_l16_LS bus1=hv_f0_lv28_f1_n16.1.2.3.4 bus2=hv_f0_lv28_f1_c16.1.2.3.4 phases=4 length=10 units=m linecode=lc_248-3ph enabled=true
new line.hv_f0_lv28_f1_l17 bus1=hv_f0_lv28_f1_n16.1.2.3.4 bus2=hv_f0_lv28_f1_n17.1.2.3.4 phases=4 length=19.92 units=m linecode=lc_247-3ph enabled=true
new line.hv_f0_lv28_f1_l17_LS bus1=hv_f0_lv28_f1_n17.1.2.3.4 bus2=hv_f0_lv28_f1_c17.1.2.3.4 phases=4 length=10 units=m linecode=lc_248-3ph enabled=true
new line.hv_f0_lv28_f1_l18 bus1=hv_f0_lv28_f1_n17.1.2.3.4 bus2=hv_f0_lv28_f1_n18.1.2.3.4 phases=4 length=19.92 units=m linecode=lc_247-3ph enabled=true
new line.hv_f0_lv28_f1_l18_LS bus1=hv_f0_lv28_f1_n18.1.2.3.4 bus2=hv_f0_lv28_f1_c18.1.2.3.4 phases=4 length=10 units=m linecode=lc_248-3ph enabled=true
new line.hv_f0_lv28_f1_l19 bus1=hv_f0_lv28_f1_n18.1.2.3.4 bus2=hv_f0_lv28_f1_n19.1.2.3.4 phases=4 length=19.92 units=m linecode=lc_247-3ph enabled=true
new line.hv_f0_lv28_f1_l19_LS bus1=hv_f0_lv28_f1_n19.1.2.3.4 bus2=hv_f0_lv28_f1_c19.1.2.3.4 phases=4 length=10 units=m linecode=lc_248-3ph enabled=true
new line.hv_f0_lv28_f1_l20 bus1=hv_f0_lv28_f1_n19.1.2.3.4 bus2=hv_f0_lv28_f1_n20.1.2.3.4 phases=4 length=19.92 units=m linecode=lc_247-3ph enabled=true
new line.hv_f0_lv28_f1_l20_LS bus1=hv_f0_lv28_f1_n20.1.2.3.4 bus2=hv_f0_lv28_f1_c20.1.2.3.4 phases=4 length=10 units=m linecode=lc_248-3ph enabled=true
new line.hv_f0_lv28_f1_l21 bus1=hv_f0_lv28_f1_n20.1.2.3.4 bus2=hv_f0_lv28_f1_n21.1.2.3.4 phases=4 length=19.92 units=m linecode=lc_247-3ph enabled=true
new line.hv_f0_lv28_f1_l21_LS bus1=hv_f0_lv28_f1_n21.1.2.3.4 bus2=hv_f0_lv28_f1_c21.1.2.3.4 phases=4 length=10 units=m linecode=lc_248-3ph enabled=true
new line.hv_f0_lv28_f1_l22 bus1=hv_f0_lv28_f1_n21.1.2.3.4 bus2=hv_f0_lv28_f1_n22.1.2.3.4 phases=4 length=19.92 units=m linecode=lc_247-3ph enabled=true
new line.hv_f0_lv28_f1_l22_LS bus1=hv_f0_lv28_f1_n22.1.2.3.4 bus2=hv_f0_lv28_f1_c22.1.2.3.4 phases=4 length=10 units=m linecode=lc_248-3ph enabled=true
new line.hv_f0_lv28_f1_l23 bus1=hv_f0_lv28_f1_n22.1.2.3.4 bus2=hv_f0_lv28_f1_n23.1.2.3.4 phases=4 length=19.92 units=m linecode=lc_247-3ph enabled=true
new line.hv_f0_lv28_f1_l23_LS bus1=hv_f0_lv28_f1_n23.1.2.3.4 bus2=hv_f0_lv28_f1_c23.1.2.3.4 phases=4 length=10 units=m linecode=lc_248-3ph enabled=true
new line.hv_f0_lv28_f1_l24 bus1=hv_f0_lv28_f1_n23.1.2.3.4 bus2=hv_f0_lv28_f1_n24.1.2.3.4 phases=4 length=19.92 units=m linecode=lc_247-3ph enabled=true
new line.hv_f0_lv28_f1_l24_LS bus1=hv_f0_lv28_f1_n24.1.2.3.4 bus2=hv_f0_lv28_f1_c24.1.2.3.4 phases=4 length=10 units=m linecode=lc_248-3ph enabled=true
new line.hv_f0_lv28_f1_l25 bus1=hv_f0_lv28_f1_n24.1.2.3.4 bus2=hv_f0_lv28_f1_n25.1.2.3.4 phases=4 length=19.92 units=m linecode=lc_247-3ph enabled=true
new line.hv_f0_lv28_f1_l25_LS bus1=hv_f0_lv28_f1_n25.1.2.3.4 bus2=hv_f0_lv28_f1_c25.1.2.3.4 phases=4 length=10 units=m linecode=lc_248-3ph enabled=true
new line.hv_f0_lv28_f1_l26 bus1=hv_f0_lv28_f1_n25.1.2.3.4 bus2=hv_f0_lv28_f1_n26.1.2.3.4 phases=4 length=19.92 units=m linecode=lc_247-3ph enabled=true
new line.hv_f0_lv28_f1_l26_LS bus1=hv_f0_lv28_f1_n26.1.2.3.4 bus2=hv_f0_lv28_f1_c26.1.2.3.4 phases=4 length=10 units=m linecode=lc_248-3ph enabled=true
new line.hv_f0_lv28_f1_l27 bus1=hv_f0_lv28_f1_n26.1.2.3.4 bus2=hv_f0_lv28_f1_n27.1.2.3.4 phases=4 length=19.92 units=m linecode=lc_247-3ph enabled=true
new line.hv_f0_lv28_f1_l27_LS bus1=hv_f0_lv28_f1_n27.1.2.3.4 bus2=hv_f0_lv28_f1_c27.1.2.3.4 phases=4 length=10 units=m linecode=lc_248-3ph enabled=true
new line.hv_f0_lv28_f1_l28 bus1=hv_f0_lv28_f1_n27.1.2.3.4 bus2=hv_f0_lv28_f1_n28.1.2.3.4 phases=4 length=19.92 units=m linecode=lc_247-3ph enabled=true
new line.hv_f0_lv28_f1_l28_LS bus1=hv_f0_lv28_f1_n28.1.2.3.4 bus2=hv_f0_lv28_f1_c28.1.2.3.4 phases=4 length=10 units=m linecode=lc_248-3ph enabled=true
new line.hv_f0_lv28_f1_l29 bus1=hv_f0_lv28_f1_n28.1.2.3.4 bus2=hv_f0_lv28_f1_n29.1.2.3.4 phases=4 length=19.92 units=m linecode=lc_247-3ph enabled=true
new line.hv_f0_lv28_f1_l29_LS bus1=hv_f0_lv28_f1_n29.1.2.3.4 bus2=hv_f0_lv28_f1_c29.1.2.3.4 phases=4 length=10 units=m linecode=lc_248-3ph enabled=true
new line.hv_f0_lv28_f1_l30 bus1=hv_f0_lv28_f1_n29.1.2.3.4 bus2=hv_f0_lv28_f1_n30.1.2.3.4 phases=4 length=19.92 units=m linecode=lc_247-3ph enabled=true
new line.hv_f0_lv28_f1_l30_LS bus1=hv_f0_lv28_f1_n30.1.2.3.4 bus2=hv_f0_lv28_f1_c30.1.2.3.4 phases=4 length=10 units=m linecode=lc_248-3ph enabled=true
new line.hv_f0_lv28_f1_l31 bus1=hv_f0_lv28_f1_n30.1.2.3.4 bus2=hv_f0_lv28_f1_n31.1.2.3.4 phases=4 length=19.92 units=m linecode=lc_247-3ph enabled=true
new line.hv_f0_lv28_f1_l31_LS bus1=hv_f0_lv28_f1_n31.1.2.3.4 bus2=hv_f0_lv28_f1_c31.1.2.3.4 phases=4 length=10 units=m linecode=lc_248-3ph enabled=true
new line.hv_f0_lv28_f1_l32 bus1=hv_f0_lv28_f1_n31.1.2.3.4 bus2=hv_f0_lv28_f1_n32.1.2.3.4 phases=4 length=19.92 units=m linecode=lc_247-3ph enabled=true
new line.hv_f0_lv28_f1_l32_LS bus1=hv_f0_lv28_f1_n32.1.2.3.4 bus2=hv_f0_lv28_f1_c32.1.2.3.4 phases=4 length=10 units=m linecode=lc_248-3ph enabled=true
new line.hv_f0_lv28_f1_l33 bus1=hv_f0_lv28_f1_n32.1.2.3.4 bus2=hv_f0_lv28_f1_n33.1.2.3.4 phases=4 length=19.92 units=m linecode=lc_247-3ph enabled=true
new line.hv_f0_lv28_f1_l33_LS bus1=hv_f0_lv28_f1_n33.1.2.3.4 bus2=hv_f0_lv28_f1_c33.1.2.3.4 phases=4 length=10 units=m linecode=lc_248-3ph enabled=true
new line.hv_f0_lv28_f1_l34 bus1=hv_f0_lv28_f1_n33.1.2.3.4 bus2=hv_f0_lv28_f1_n34.1.2.3.4 phases=4 length=19.92 units=m linecode=lc_247-3ph enabled=true
new line.hv_f0_lv28_f1_l34_LS bus1=hv_f0_lv28_f1_n34.1.2.3.4 bus2=hv_f0_lv28_f1_c34.1.2.3.4 phases=4 length=10 units=m linecode=lc_248-3ph enabled=true
new line.hv_f0_lv28_f1_l35 bus1=hv_f0_lv28_f1_n34.1.2.3.4 bus2=hv_f0_lv28_f1_n35.1.2.3.4 phases=4 length=19.92 units=m linecode=lc_247-3ph enabled=true
new line.hv_f0_lv28_f1_l35_LS bus1=hv_f0_lv28_f1_n35.1.2.3.4 bus2=hv_f0_lv28_f1_c35.1.2.3.4 phases=4 length=10 units=m linecode=lc_248-3ph enabled=true
new line.hv_f0_lv28_f1_l36 bus1=hv_f0_lv28_f1_n35.1.2.3.4 bus2=hv_f0_lv28_f1_n36.1.2.3.4 phases=4 length=19.92 units=m linecode=lc_247-3ph enabled=true
new line.hv_f0_lv28_f1_l36_LS bus1=hv_f0_lv28_f1_n36.1.2.3.4 bus2=hv_f0_lv28_f1_c36.1.2.3.4 phases=4 length=10 units=m linecode=lc_248-3ph enabled=true
new line.hv_f0_lv28_f1_l37 bus1=hv_f0_lv28_f1_n36.1.2.3.4 bus2=hv_f0_lv28_f1_n37.1.2.3.4 phases=4 length=19.92 units=m linecode=lc_247-3ph enabled=true
new line.hv_f0_lv28_f1_l37_LS bus1=hv_f0_lv28_f1_n37.1.2.3.4 bus2=hv_f0_lv28_f1_c37.1.2.3.4 phases=4 length=10 units=m linecode=lc_248-3ph enabled=true
new line.hv_f0_lv28_f1_l38 bus1=hv_f0_lv28_f1_n37.1.2.3.4 bus2=hv_f0_lv28_f1_n38.1.2.3.4 phases=4 length=19.92 units=m linecode=lc_247-3ph enabled=true
new line.hv_f0_lv28_f1_l38_LS bus1=hv_f0_lv28_f1_n38.1.2.3.4 bus2=hv_f0_lv28_f1_c38.1.2.3.4 phases=4 length=10 units=m linecode=lc_248-3ph enabled=true
new line.hv_f0_lv28_f1_l39 bus1=hv_f0_lv28_f1_n38.1.2.3.4 bus2=hv_f0_lv28_f1_n39.1.2.3.4 phases=4 length=19.92 units=m linecode=lc_247-3ph enabled=true
new line.hv_f0_lv28_f1_l39_LS bus1=hv_f0_lv28_f1_n39.1.2.3.4 bus2=hv_f0_lv28_f1_c39.1.2.3.4 phases=4 length=10 units=m linecode=lc_248-3ph enabled=true
new line.hv_f0_lv28_f2_l0 bus1=hv_f0_lv28_busbar.1.2.3.4 bus2=hv_f0_lv28_f2_n0.1.2.3.4 phases=4 length=19.92 units=m linecode=lc_247-3ph enabled=true
new line.hv_f0_lv28_f2_l0_LS bus1=hv_f0_lv28_f2_n0.1.2.3.4 bus2=hv_f0_lv28_f2_c0.1.2.3.4 phases=4 length=10 units=m linecode=lc_248-3ph enabled=true
new line.hv_f0_lv28_f2_l1 bus1=hv_f0_lv28_f2_n0.1.2.3.4 bus2=hv_f0_lv28_f2_n1.1.2.3.4 phases=4 length=19.92 units=m linecode=lc_247-3ph enabled=true
new line.hv_f0_lv28_f2_l1_LS bus1=hv_f0_lv28_f2_n1.1.2.3.4 bus2=hv_f0_lv28_f2_c1.1.2.3.4 phases=4 length=10 units=m linecode=lc_248-3ph enabled=true
new line.hv_f0_lv28_f2_l2 bus1=hv_f0_lv28_f2_n1.1.2.3.4 bus2=hv_f0_lv28_f2_n2.1.2.3.4 phases=4 length=19.92 units=m linecode=lc_247-3ph enabled=true
new line.hv_f0_lv28_f2_l2_LS bus1=hv_f0_lv28_f2_n2.1.2.3.4 bus2=hv_f0_lv28_f2_c2.1.2.3.4 phases=4 length=10 units=m linecode=lc_248-3ph enabled=true
new line.hv_f0_lv28_f2_l3 bus1=hv_f0_lv28_f2_n2.1.2.3.4 bus2=hv_f0_lv28_f2_n3.1.2.3.4 phases=4 length=19.92 units=m linecode=lc_247-3ph enabled=true
new line.hv_f0_lv28_f2_l3_LS bus1=hv_f0_lv28_f2_n3.1.2.3.4 bus2=hv_f0_lv28_f2_c3.1.2.3.4 phases=4 length=10 units=m linecode=lc_248-3ph enabled=true
new line.hv_f0_lv28_f2_l4 bus1=hv_f0_lv28_f2_n3.1.2.3.4 bus2=hv_f0_lv28_f2_n4.1.2.3.4 phases=4 length=19.92 units=m linecode=lc_247-3ph enabled=true
new line.hv_f0_lv28_f2_l4_LS bus1=hv_f0_lv28_f2_n4.1.2.3.4 bus2=hv_f0_lv28_f2_c4.1.2.3.4 phases=4 length=10 units=m linecode=lc_248-3ph enabled=true
new line.hv_f0_lv28_f2_l5 bus1=hv_f0_lv28_f2_n4.1.2.3.4 bus2=hv_f0_lv28_f2_n5.1.2.3.4 phases=4 length=19.92 units=m linecode=lc_247-3ph enabled=true
new line.hv_f0_lv28_f2_l5_LS bus1=hv_f0_lv28_f2_n5.1.2.3.4 bus2=hv_f0_lv28_f2_c5.1.2.3.4 phases=4 length=10 units=m linecode=lc_248-3ph enabled=true
new line.hv_f0_lv28_f2_l6 bus1=hv_f0_lv28_f2_n5.1.2.3.4 bus2=hv_f0_lv28_f2_n6.1.2.3.4 phases=4 length=19.92 units=m linecode=lc_247-3ph enabled=true
new line.hv_f0_lv28_f2_l6_LS bus1=hv_f0_lv28_f2_n6.1.2.3.4 bus2=hv_f0_lv28_f2_c6.1.2.3.4 phases=4 length=10 units=m linecode=lc_248-3ph enabled=true
new line.hv_f0_lv28_f2_l7 bus1=hv_f0_lv28_f2_n6.1.2.3.4 bus2=hv_f0_lv28_f2_n7.1.2.3.4 phases=4 length=19.92 units=m linecode=lc_247-3ph enabled=true
new line.hv_f0_lv28_f2_l7_LS bus1=hv_f0_lv28_f2_n7.1.2.3.4 bus2=hv_f0_lv28_f2_c7.1.2.3.4 phases=4 length=10 units=m linecode=lc_248-3ph enabled=true
new line.hv_f0_lv28_f2_l8 bus1=hv_f0_lv28_f2_n7.1.2.3.4 bus2=hv_f0_lv28_f2_n8.1.2.3.4 phases=4 length=19.92 units=m linecode=lc_247-3ph enabled=true
new line.hv_f0_lv28_f2_l8_LS bus1=hv_f0_lv28_f2_n8.1.2.3.4 bus2=hv_f0_lv28_f2_c8.1.2.3.4 phases=4 length=10 units=m linecode=lc_248-3ph enabled=true
new line.hv_f0_lv28_f2_l9 bus1=hv_f0_lv28_f2_n8.1.2.3.4 bus2=hv_f0_lv28_f2_n9.1.2.3.4 phases=4 length=19.92 units=m linecode=lc_247-3ph enabled=true
new line.hv_f0_lv28_f2_l9_LS bus1=hv_f0_lv28_f2_n9.1.2.3.4 bus2=hv_f0_lv28_f2_c9.1.2.3.4 phases=4 length=10 units=m linecode=lc_248-3ph enabled=true
new line.hv_f0_lv28_f2_l10 bus1=hv_f0_lv28_f2_n9.1.2.3.4 bus2=hv_f0_lv28_f2_n10.1.2.3.4 phases=4 length=19.92 units=m linecode=lc_247-3ph enabled=true
new line.hv_f0_lv28_f2_l10_LS bus1=hv_f0_lv28_f2_n10.1.2.3.4 bus2=hv_f0_lv28_f2_c10.1.2.3.4 phases=4 length=10 units=m linecode=lc_248-3ph enabled=true
new line.hv_f0_lv28_f2_l11 bus1=hv_f0_lv28_f2_n10.1.2.3.4 bus2=hv_f0_lv28_f2_n11.1.2.3.4 phases=4 length=19.92 units=m linecode=lc_247-3ph enabled=true
new line.hv_f0_lv28_f2_l11_LS bus1=hv_f0_lv28_f2_n11.1.2.3.4 bus2=hv_f0_lv28_f2_c11.1.2.3.4 phases=4 length=10 units=m linecode=lc_248-3ph enabled=true
new line.hv_f0_lv28_f2_l12 bus1=hv_f0_lv28_f2_n11.1.2.3.4 bus2=hv_f0_lv28_f2_n12.1.2.3.4 phases=4 length=19.92 units=m linecode=lc_247-3ph enabled=true
new line.hv_f0_lv28_f2_l12_LS bus1=hv_f0_lv28_f2_n12.1.2.3.4 bus2=hv_f0_lv28_f2_c12.1.2.3.4 phases=4 length=10 units=m linecode=lc_248-3ph enabled=true
new line.hv_f0_lv28_f2_l13 bus1=hv_f0_lv28_f2_n12.1.2.3.4 bus2=hv_f0_lv28_f2_n13.1.2.3.4 phases=4 length=19.92 units=m linecode=lc_247-3ph enabled=true
new line.hv_f0_lv28_f2_l13_LS bus1=hv_f0_lv28_f2_n13.1.2.3.4 bus2=hv_f0_lv28_f2_c13.1.2.3.4 phases=4 length=10 units=m linecode=lc_248-3ph enabled=true
new line.hv_f0_lv28_f2_l14 bus1=hv_f0_lv28_f2_n13.1.2.3.4 bus2=hv_f0_lv28_f2_n14.1.2.3.4 phases=4 length=19.92 units=m linecode=lc_247-3ph enabled=true
new line.hv_f0_lv28_f2_l14_LS bus1=hv_f0_lv28_f2_n14.1.2.3.4 bus2=hv_f0_lv28_f2_c14.1.2.3.4 phases=4 length=10 units=m linecode=lc_248-3ph enabled=true
new line.hv_f0_lv28_f2_l15 bus1=hv_f0_lv28_f2_n14.1.2.3.4 bus2=hv_f0_lv28_f2_n15.1.2.3.4 phases=4 length=19.92 units=m linecode=lc_247-3ph enabled=true
new line.hv_f0_lv28_f2_l15_LS bus1=hv_f0_lv28_f2_n15.1.2.3.4 bus2=hv_f0_lv28_f2_c15.1.2.3.4 phases=4 length=10 units=m linecode=lc_248-3ph enabled=true
new line.hv_f0_lv28_f2_l16 bus1=hv_f0_lv28_f2_n15.1.2.3.4 bus2=hv_f0_lv28_f2_n16.1.2.3.4 phases=4 length=19.92 units=m linecode=lc_247-3ph enabled=true
new line.hv_f0_lv28_f2_l16_LS bus1=hv_f0_lv28_f2_n16.1.2.3.4 bus2=hv_f0_lv28_f2_c16.1.2.3.4 phases=4 length=10 units=m linecode=lc_248-3ph enabled=true
new line.hv_f0_lv28_f2_l17 bus1=hv_f0_lv28_f2_n16.1.2.3.4 bus2=hv_f0_lv28_f2_n17.1.2.3.4 phases=4 length=19.92 units=m linecode=lc_247-3ph enabled=true
new line.hv_f0_lv28_f2_l17_LS bus1=hv_f0_lv28_f2_n17.1.2.3.4 bus2=hv_f0_lv28_f2_c17.1.2.3.4 phases=4 length=10 units=m linecode=lc_248-3ph enabled=true
new line.hv_f0_lv28_f2_l18 bus1=hv_f0_lv28_f2_n17.1.2.3.4 bus2=hv_f0_lv28_f2_n18.1.2.3.4 phases=4 length=19.92 units=m linecode=lc_247-3ph enabled=true